  
       XFOIL         Version 6.99
  
 Calculated polar for: NACA 0014                                       
  
 1 1 Reynolds number fixed          Mach number fixed         
  
 xtrf =   1.000 (top)        1.000 (bottom)  
 Mach =   0.000     Re =     3.230 e 6     Ncrit =   9.000  9.000
  
   alpha    CL        CD       CDp       CM     Top_Xtr  Bot_Xtr  Top_Itr  Bot_Itr
  ------ -------- --------- --------- -------- -------- -------- -------- --------
   0.000   0.0000   0.00544   0.00036  -0.0000   0.4762   0.4762  31.6740 129.3260
   1.000   0.1127   0.00549   0.00039   0.0000   0.3994   0.5531  36.0202 133.6366
   2.000   0.2252   0.00565   0.00047   0.0001   0.3252   0.6308  40.2897 137.9581
   3.000   0.3366   0.00591   0.00062   0.0003   0.2518   0.7099  44.6302 142.3401
   4.000   0.4470   0.00631   0.00085   0.0007   0.1843   0.7873  48.8063 146.6269
   5.000   0.5564   0.00679   0.00115   0.0014   0.1302   0.8560  52.4822 150.4425
   6.000   0.6643   0.00741   0.00152   0.0023   0.0906   0.9116  55.7095 153.5908
   7.000   0.7706   0.00810   0.00193   0.0036   0.0652   0.9517  58.4033 156.0241
   8.000   0.8742   0.00891   0.00239   0.0054   0.0487   0.9802  60.6990 158.0615
   9.000   0.9918   0.00984   0.00292   0.0037   0.0378   0.9928  62.6220 159.1825
  10.000   1.1178   0.01091   0.00356  -0.0000   0.0304   0.9970  64.2125 159.6561
  11.000   1.2338   0.01207   0.00425  -0.0019   0.0254   1.0000  65.4770 160.0000
  12.000   1.3110   0.01317   0.00480   0.0044   0.0224   1.0000  66.3270 160.0000
  13.000   1.3960   0.01453   0.00553   0.0085   0.0196   1.0000  67.1499 160.0000
  14.000   1.4769   0.01617   0.00639   0.0127   0.0174   1.0000  67.8851 160.0000
  15.000   1.5432   0.01796   0.00726   0.0190   0.0163   1.0000  68.2792 160.0000
  15.000   1.5432   0.01796   0.00726   0.0190   0.0163   1.0000  68.2792 160.0000
  16.000   1.5967   0.02070   0.00867   0.0254   0.0147   1.0000  68.8496 160.0000
  17.000   1.6437   0.02438   0.01068   0.0304   0.0139   1.0000  69.1479 160.0000
  18.000   1.6781   0.02986   0.01388   0.0335   0.0132   1.0000  69.4399 160.0000
  19.000   1.6879   0.03887   0.01966   0.0339   0.0124   1.0000  69.7771 160.0000
  20.000   1.6636   0.05331   0.02977   0.0302   0.0118   1.0000  70.0199 160.0000
  21.000   1.6104   0.07326   0.04484   0.0224   0.0117   1.0000  70.0814 160.0000
  22.000   1.4986   0.10339   0.07074   0.0083   0.0116   1.0000  70.1148 160.0000
  23.000   1.3523   0.14207   0.11288  -0.0132   0.0116   1.0000  70.1253 160.0000
  24.000   1.2514   0.17667   0.16288  -0.0364   0.0114   1.0000  70.2109 160.0000
  25.000   1.1998   0.20412   0.21169  -0.0569   0.0109   1.0000  70.4347 160.0000
