  
       XFOIL         Version 6.99
  
 Calculated polar for: NACA 0014                                       
  
 1 1 Reynolds number fixed          Mach number fixed         
  
 xtrf =   1.000 (top)        1.000 (bottom)  
 Mach =   0.000     Re =     0.100 e 6     Ncrit =   9.000  9.000
  
   alpha    CL        CD       CDp       CM     Top_Xtr  Bot_Xtr  Top_Itr  Bot_Itr
  ------ -------- --------- --------- -------- -------- -------- -------- --------
   0.000   0.0000   0.01899   0.01012  -0.0000   0.9174   0.9174   7.0715 153.9264
   2.000   0.4242   0.01659   0.00730  -0.0335   0.7365   1.0000  17.1863 160.0000
   4.000   0.5827   0.01682   0.00589  -0.0221   0.5148   1.0000  29.5043 160.0000
   6.000   0.7297   0.01966   0.00645  -0.0085   0.3012   1.0000  41.6961 160.0000
   8.000   0.8670   0.02586   0.00977   0.0059   0.1633   1.0000  50.1769 160.0000
  10.000   1.0118   0.03612   0.01715   0.0171   0.1085   1.0000  54.1482 160.0000
  12.000   1.0823   0.05342   0.03145   0.0316   0.0869   1.0000  56.0439 160.0000
  18.000   0.4888   0.18901   0.16917  -0.0137   0.1059   1.0000  54.3713 160.0000
  20.000   0.5359   0.21167   0.19724  -0.0196   0.0875   1.0000  55.9842 160.0000
  22.000   0.5409   0.22769   0.23206  -0.0314   0.0731   1.0000  57.4736 160.0000
  24.000   0.5721   0.24824   0.26549  -0.0404   0.0612   1.0000  58.8957 160.0000
  26.000   0.5979   0.26990   0.30173  -0.0505   0.0528   1.0000  60.0524 160.0000
  28.000   0.6192   0.29115   0.34097  -0.0615   0.0449   1.0000  61.3304 160.0000
  30.000   0.6408   0.31316   0.37979  -0.0721   0.0381   1.0000  62.5679 160.0000
