  
       XFOIL         Version 6.99
  
 Calculated polar for: NACA 0014                                       
  
 1 1 Reynolds number fixed          Mach number fixed         
  
 xtrf =   1.000 (top)        1.000 (bottom)  
 Mach =   0.000     Re =     1.000 e 6     Ncrit =   9.000  9.000
  
   alpha    CL        CD       CDp       CM     Top_Xtr  Bot_Xtr  Top_Itr  Bot_Itr
  ------ -------- --------- --------- -------- -------- -------- -------- --------
   0.000   0.0000   0.00605   0.00058  -0.0000   0.6310   0.6310  23.0323 137.9677
   2.000   0.2172   0.00630   0.00072   0.0022   0.4610   0.7953  32.5261 147.0686
   4.000   0.4307   0.00732   0.00119   0.0053   0.2928   0.9197  42.1864 154.0636
   6.000   0.6541   0.00931   0.00208   0.0055   0.1450   0.9810  51.4215 158.1363
   8.000   0.9268   0.01191   0.00345  -0.0064   0.0650   0.9970  58.4198 159.6650
  10.000   1.0989   0.01454   0.00487   0.0022   0.0414   1.0000  61.9339 160.0000
  12.000   1.2475   0.01798   0.00682   0.0141   0.0309   1.0000  64.1007 160.0000
  14.000   1.3613   0.02322   0.00990   0.0275   0.0252   1.0000  65.5307 160.0000
  18.000   1.3726   0.06641   0.04240   0.0246   0.0198   1.0000  67.0836 160.0000
  20.000   1.2502   0.11440   0.08629   0.0021   0.0189   1.0000  67.3968 160.0000
  22.000   1.1686   0.16027   0.14178  -0.0245   0.0174   1.0000  67.8814 160.0000
  28.000   0.6296   0.28619   0.33776  -0.0645   0.0087   1.0000  71.4580 160.0000
  30.000   0.6498   0.30872   0.37747  -0.0752   0.0069   1.0000  72.4303 160.0000
