  
       XFOIL         Version 6.99
  
 Calculated polar for: NACA 0014                                       
  
 1 1 Reynolds number fixed          Mach number fixed         
  
 xtrf =   1.000 (top)        1.000 (bottom)  
 Mach =   0.000     Re =     0.100 e 6     Ncrit =   9.000  9.000
  
   alpha    CL        CD       CDp       CM     Top_Xtr  Bot_Xtr  Top_Itr  Bot_Itr
  ------ -------- --------- --------- -------- -------- -------- -------- --------
   0.000   0.0000   0.01899   0.01012  -0.0000   0.9174   0.9174   7.0715 153.9264
   1.000   0.2465   0.01797   0.00911  -0.0225   0.8507   0.9576  10.8551 156.4235
   2.000   0.4242   0.01659   0.00730  -0.0335   0.7365   1.0000  17.1860 160.0000
   3.000   0.5017   0.01637   0.00634  -0.0276   0.6252   1.0000  23.3535 160.0000
   4.000   0.5827   0.01682   0.00589  -0.0221   0.5148   1.0000  29.5048 160.0000
   5.000   0.6592   0.01788   0.00590  -0.0157   0.4055   1.0000  35.6724 160.0000
   6.000   0.7297   0.01966   0.00645  -0.0085   0.3012   1.0000  41.6960 160.0000
   7.000   0.7968   0.02230   0.00771  -0.0009   0.2174   1.0000  46.7253 160.0000
   8.000   0.8670   0.02586   0.00977   0.0059   0.1633   1.0000  50.1769 160.0000
   9.000   0.9396   0.03026   0.01291   0.0120   0.1295   1.0000  52.5309 160.0000
  10.000   1.0118   0.03612   0.01715   0.0171   0.1085   1.0000  54.1482 160.0000
  11.000   1.0576   0.04386   0.02380   0.0244   0.0955   1.0000  55.2588 160.0000
  12.000   1.0823   0.05342   0.03145   0.0316   0.0869   1.0000  56.0441 160.0000
  13.000   0.9819   0.06913   0.04624   0.0408   0.0864   1.0000  56.0960 160.0000
  15.000   0.4693   0.16222   0.12959  -0.0030   0.1416   1.0000  51.6651 160.0000
  16.000   0.4723   0.17072   0.14172  -0.0061   0.1278   1.0000  52.6602 160.0000
  17.000   0.4783   0.17974   0.15515  -0.0098   0.1164   1.0000  53.5240 160.0000
  18.000   0.4888   0.18901   0.16917  -0.0137   0.1059   1.0000  54.3713 160.0000
  19.000   0.5063   0.19915   0.18324  -0.0171   0.0971   1.0000  55.1131 160.0000
  20.000   0.5359   0.21168   0.19724  -0.0196   0.0875   1.0000  55.9842 160.0000
  22.000   0.5409   0.22769   0.23206  -0.0314   0.0731   1.0000  57.4737 160.0000
  23.000   0.5578   0.23831   0.24823  -0.0356   0.0676   1.0000  58.0989 160.0000
  24.000   0.5721   0.24824   0.26549  -0.0404   0.0612   1.0000  58.8957 160.0000
  25.000   0.5821   0.25867   0.28472  -0.0461   0.0563   1.0000  59.5705 160.0000
  26.000   0.5979   0.26989   0.30173  -0.0505   0.0528   1.0000  60.0524 160.0000
  27.000   0.6088   0.28000   0.32103  -0.0560   0.0477   1.0000  60.8573 160.0000
  28.000   0.6192   0.29116   0.34097  -0.0615   0.0449   1.0000  61.3303 160.0000
  30.000   0.6408   0.31318   0.37980  -0.0721   0.0381   1.0000  62.5679 160.0000
